# File generated by Flopy version 3.3.5 on 07/08/2024 at 08:23:27.
BEGIN options
END options

BEGIN timing
  TDIS6  simple_model.tdis
END timing

BEGIN models
  gwf6  simple_model.nam  simple_model
END models

BEGIN exchanges
END exchanges

BEGIN solutiongroup  1
  ims6  simple_model.ims  simple_model
END solutiongroup  1

