# File generated by Flopy version 3.3.5 on 07/08/2024 at 08:23:27.
BEGIN options
  READASARRAYS
END options

BEGIN period  1
  recharge
    CONSTANT  1.00000000E-04
END period  1

