# File generated by Flopy version 3.3.5 on 07/08/2024 at 08:23:27.
BEGIN options
END options

BEGIN griddata
  iconvert
    CONSTANT  0
  ss
    CONSTANT  1.00000000E-05
  sy
    CONSTANT       0.10000000
END griddata

BEGIN period  1
  TRANSIENT
END period  1

