# File generated by Flopy version 3.3.5 on 07/08/2024 at 08:23:27.
BEGIN griddata
  strt
    CONSTANT       0.00000000
END griddata

