# File generated by Flopy version 3.3.5 on 07/08/2024 at 08:23:27.
BEGIN options
  PRINT_OPTION  summary
  COMPLEXITY  simple
END options

