# File generated by Flopy version 3.3.5 on 07/08/2024 at 08:23:27.
BEGIN options
END options

BEGIN dimensions
  NLAY  1
  NROW  10
  NCOL  10
END dimensions

BEGIN griddata
  delr
    CONSTANT     100.00000000
  delc
    CONSTANT     100.00000000
  top
    CONSTANT       0.00000000
  botm
    CONSTANT     -50.00000000
END griddata

