# File generated by Flopy version 3.3.5 on 07/08/2024 at 08:23:27.
BEGIN options
END options

BEGIN dimensions
  NPER  1
END dimensions

BEGIN perioddata
       1.00000000  1       1.00000000
END perioddata

