# File generated by Flopy version 3.3.5 on 07/08/2024 at 08:23:27.
BEGIN options
  BUDGET  FILEOUT  simple_model.cbc
  HEAD  FILEOUT  simple_model.hds
END options

BEGIN period  1
  SAVE  head  all
  SAVE  budget  all
END period  1

