# File generated by Flopy version 3.3.5 on 07/08/2024 at 08:23:27.
BEGIN options
  SAVE_FLOWS
END options

BEGIN packages
  dis6  simple_model.dis  dis
  ic6  simple_model.ic  ic
  npf6  simple_model.npf  npf
  sto6  simple_model.sto  sto
  chd6  simple_model.chd  chd_0
  oc6  simple_model.oc  oc
  RCH6  simple_model.rcha  rcha_0
END packages

