# File generated by Flopy version 3.3.5 on 07/08/2024 at 08:23:27.
BEGIN options
END options

BEGIN dimensions
  MAXBOUND  20
END dimensions

BEGIN period  1
  1 1 1       0.00000000
  1 1 10      10.00000000
  1 2 1       0.00000000
  1 2 10      10.00000000
  1 3 1       0.00000000
  1 3 10      10.00000000
  1 4 1       0.00000000
  1 4 10      10.00000000
  1 5 1       0.00000000
  1 5 10      10.00000000
  1 6 1       0.00000000
  1 6 10      10.00000000
  1 7 1       0.00000000
  1 7 10      10.00000000
  1 8 1       0.00000000
  1 8 10      10.00000000
  1 9 1       0.00000000
  1 9 10      10.00000000
  1 10 1       0.00000000
  1 10 10      10.00000000
END period  1

