# File generated by Flopy version 3.3.5 on 07/05/2024 at 01:10:37.
BEGIN options
END options

BEGIN timing
  TDIS6  test_model.tdis
END timing

BEGIN models
  gwf6  test_model.nam  test_model
END models

BEGIN exchanges
END exchanges

