# File generated by Flopy version 3.3.5 on 07/05/2024 at 01:10:37.
BEGIN options
END options

BEGIN packages
  DIS6  ./test_model.dis  dis
  IC6  ./test_model.ic  ic
  NPF6  ./test_model.npf  npf
  STO6  ./test_model.sto  sto
  WEL6  ./test_model.wel  wel_0
  OC6  ./test_model.oc  oc
  CHD6  ./test_model.chd  chd_0
END packages

