# File generated by Flopy version 3.3.5 on 07/05/2024 at 01:10:37.
BEGIN options
END options

BEGIN griddata
  icelltype
    CONSTANT  0
  k
    CONSTANT      10.00000000
  k33
    CONSTANT       1.00000000
END griddata

