# File generated by Flopy version 3.3.5 on 07/05/2024 at 01:10:37.
BEGIN options
END options

BEGIN dimensions
  NLAY  3
  NROW  0
  NCOL  0
END dimensions

BEGIN griddata
  delr
    CONSTANT     100.00000000
  delc
    CONSTANT     100.00000000
  top
    CONSTANT     100.00000000
  botm  LAYERED
    CONSTANT      16.66666667
    CONSTANT     -16.66666667
    CONSTANT     -50.00000000
END griddata

