# File generated by Flopy version 3.3.5 on 07/05/2024 at 01:10:37.
BEGIN options
END options

BEGIN dimensions
  MAXBOUND  5
END dimensions

BEGIN period  1
  1 39.36285535019698 -109.22133567932204    -112.13947564
  1 39.454441219863476 -111.04178690676082    -500.13580632
  1 38.714062649988456 -111.75472288695586    -171.28507188
  1 41.62686589318696 -110.70315016651689    -367.33400991
  1 39.085561156013455 -110.99640379292556    -107.98752707
END period  1

