# File generated by Flopy version 3.3.5 on 07/05/2024 at 01:10:37.
BEGIN options
  BUDGET  FILEOUT  test_model.cbc
  HEAD  FILEOUT  test_model.hds
END options

BEGIN period  1
  SAVE  HEAD  ALL
  SAVE  BUDGET  ALL
END period  1

