# File generated by Flopy version 3.3.5 on 07/05/2024 at 01:10:37.
BEGIN griddata
  strt
    CONSTANT      80.00000000
END griddata

