# File generated by Flopy version 3.3.5 on 07/05/2024 at 01:10:37.
BEGIN options
END options

BEGIN dimensions
  NPER  3
END dimensions

BEGIN perioddata
       1.00000000  1  steady
      30.00000000  30  transient
     365.00000000  365  transient
END perioddata

